notebook_tutorials/synthetic_net_opendss/master_sample_53.dss
clear
new circuit.synthetic_net basekv=157.6864406779661 pu=1.0 phases=3
edit Vsource.source bus1=bus_68.1.2.3

!---------------- LINES ----------------

new linecode.LCode_0 nphases=1 rmatrix=[0.157940] xmatrix=[1.590191] units=km
new line.line_0 bus1=bus_0.2 bus2=bus_1.2 linecode=LCode_0 length=1.0 units=km
new linecode.LCode_1 nphases=1 rmatrix=[0.729149] xmatrix=[1.614093] units=km
new line.line_1 bus1=bus_0.2 bus2=bus_2.2 linecode=LCode_1 length=1.0 units=km
new linecode.LCode_2 nphases=1 rmatrix=[0.916435] xmatrix=[1.250809] units=km
new line.line_2 bus1=bus_3.2 bus2=bus_4.2 linecode=LCode_2 length=1.0 units=km
new linecode.LCode_3 nphases=1 rmatrix=[0.571506] xmatrix=[1.242115] units=km
new line.line_3 bus1=bus_2.2 bus2=bus_4.2 linecode=LCode_3 length=1.0 units=km
new linecode.LCode_4 nphases=1 rmatrix=[0.723986] xmatrix=[1.242115] units=km
new line.line_4 bus1=bus_4.2 bus2=bus_5.2 linecode=LCode_4 length=1.0 units=km
new linecode.LCode_5 nphases=1 rmatrix=[0.927347] xmatrix=[1.242115] units=km
new line.line_5 bus1=bus_5.2 bus2=bus_6.2 linecode=LCode_5 length=1.0 units=km
new linecode.LCode_6 nphases=1 rmatrix=[0.846216] xmatrix=[1.242115] units=km
new line.line_6 bus1=bus_7.2 bus2=bus_8.2 linecode=LCode_6 length=1.0 units=km
new linecode.LCode_7 nphases=1 rmatrix=[1.027053] xmatrix=[1.242115] units=km
new line.line_7 bus1=bus_8.2 bus2=bus_9.2 linecode=LCode_7 length=1.0 units=km
new linecode.LCode_8 nphases=1 rmatrix=[0.354175] xmatrix=[1.332108] units=km
new line.line_8 bus1=bus_3.2 bus2=bus_10.2 linecode=LCode_8 length=1.0 units=km
new linecode.LCode_9 nphases=1 rmatrix=[0.538242] xmatrix=[1.316639] units=km
new line.line_9 bus1=bus_4.2 bus2=bus_10.2 linecode=LCode_9 length=1.0 units=km
new linecode.LCode_10 nphases=1 rmatrix=[0.729488] xmatrix=[1.242115] units=km
new line.line_10 bus1=bus_10.2 bus2=bus_11.2 linecode=LCode_10 length=1.0 units=km
new linecode.LCode_11 nphases=1 rmatrix=[0.182044] xmatrix=[1.242115] units=km
new line.line_11 bus1=bus_1.2 bus2=bus_11.2 linecode=LCode_11 length=1.0 units=km
new linecode.LCode_12 nphases=1 rmatrix=[1.007426] xmatrix=[1.242115] units=km
new line.line_12 bus1=bus_2.2 bus2=bus_11.2 linecode=LCode_12 length=1.0 units=km
new linecode.LCode_13 nphases=1 rmatrix=[0.429806] xmatrix=[1.244727] units=km
new line.line_13 bus1=bus_6.2 bus2=bus_11.2 linecode=LCode_13 length=1.0 units=km
new linecode.LCode_16 nphases=1 rmatrix=[0.660032] xmatrix=[1.485791] units=km
new line.line_16 bus1=bus_12.3 bus2=bus_14.3 linecode=LCode_16 length=1.0 units=km
new linecode.LCode_17 nphases=1 rmatrix=[0.864840] xmatrix=[1.280856] units=km
new line.line_17 bus1=bus_13.3 bus2=bus_14.3 linecode=LCode_17 length=1.0 units=km
new linecode.LCode_18 nphases=1 rmatrix=[0.200099] xmatrix=[1.242115] units=km
new line.line_18 bus1=bus_11.2 bus2=bus_15.2 linecode=LCode_18 length=1.0 units=km
new linecode.LCode_20 nphases=1 rmatrix=[0.663794] xmatrix=[1.242115] units=km
new line.line_20 bus1=bus_15.2 bus2=bus_16.2 linecode=LCode_20 length=1.0 units=km
new linecode.LCode_21 nphases=1 rmatrix=[0.845988] xmatrix=[1.242115] units=km
new line.line_21 bus1=bus_16.2 bus2=bus_17.2 linecode=LCode_21 length=1.0 units=km
new linecode.LCode_23 nphases=1 rmatrix=[0.762437] xmatrix=[1.394937] units=km
new line.line_23 bus1=bus_18.3 bus2=bus_19.3 linecode=LCode_23 length=1.0 units=km
new linecode.LCode_24 nphases=1 rmatrix=[0.860419] xmatrix=[1.285324] units=km
new line.line_24 bus1=bus_14.3 bus2=bus_18.3 linecode=LCode_24 length=1.0 units=km
new linecode.LCode_25 nphases=1 rmatrix=[1.042566] xmatrix=[1.335679] units=km
new line.line_25 bus1=bus_19.3 bus2=bus_20.3 linecode=LCode_25 length=1.0 units=km
new linecode.LCode_26 nphases=1 rmatrix=[0.861867] xmatrix=[1.242115] units=km
new line.line_26 bus1=bus_20.3 bus2=bus_21.3 linecode=LCode_26 length=1.0 units=km
new linecode.LCode_27 nphases=1 rmatrix=[0.765625] xmatrix=[1.330871] units=km
new line.line_27 bus1=bus_21.3 bus2=bus_22.3 linecode=LCode_27 length=1.0 units=km
new linecode.LCode_28 nphases=1 rmatrix=[0.849270] xmatrix=[1.308086] units=km
new line.line_28 bus1=bus_22.3 bus2=bus_23.3 linecode=LCode_28 length=1.0 units=km
new linecode.LCode_29 nphases=1 rmatrix=[0.771676] xmatrix=[1.242115] units=km
new line.line_29 bus1=bus_22.3 bus2=bus_24.3 linecode=LCode_29 length=1.0 units=km
new linecode.LCode_30 nphases=1 rmatrix=[0.302507] xmatrix=[1.242115] units=km
new line.line_30 bus1=bus_24.3 bus2=bus_26.3 linecode=LCode_30 length=1.0 units=km
new linecode.LCode_31 nphases=1 rmatrix=[0.268759] xmatrix=[1.323310] units=km
new line.line_31 bus1=bus_26.3 bus2=bus_27.3 linecode=LCode_31 length=1.0 units=km
new linecode.LCode_32 nphases=1 rmatrix=[0.957263] xmatrix=[1.336143] units=km
new line.line_32 bus1=bus_27.3 bus2=bus_28.3 linecode=LCode_32 length=1.0 units=km
new linecode.LCode_33 nphases=1 rmatrix=[0.867043] xmatrix=[1.390579] units=km
new line.line_33 bus1=bus_7.2 bus2=bus_29.2 linecode=LCode_33 length=1.0 units=km
new linecode.LCode_36 nphases=1 rmatrix=[0.733879] xmatrix=[1.443715] units=km
new line.line_36 bus1=bus_28.3 bus2=bus_30.3 linecode=LCode_36 length=1.0 units=km
new linecode.LCode_37 nphases=1 rmatrix=[0.938637] xmatrix=[1.327410] units=km
new line.line_37 bus1=bus_22.3 bus2=bus_31.3 linecode=LCode_37 length=1.0 units=km
new linecode.LCode_38 nphases=1 rmatrix=[0.916998] xmatrix=[1.306235] units=km
new line.line_38 bus1=bus_30.3 bus2=bus_31.3 linecode=LCode_38 length=1.0 units=km
new linecode.LCode_39 nphases=1 rmatrix=[0.369277] xmatrix=[1.289664] units=km
new line.line_39 bus1=bus_26.3 bus2=bus_31.3 linecode=LCode_39 length=1.0 units=km
new linecode.LCode_40 nphases=1 rmatrix=[0.872275] xmatrix=[1.242115] units=km
new line.line_40 bus1=bus_14.3 bus2=bus_32.3 linecode=LCode_40 length=1.0 units=km
new linecode.LCode_41 nphases=1 rmatrix=[1.053890] xmatrix=[1.242115] units=km
new line.line_41 bus1=bus_18.3 bus2=bus_33.3 linecode=LCode_41 length=1.0 units=km
new linecode.LCode_42 nphases=1 rmatrix=[0.790100] xmatrix=[1.395299] units=km
new line.line_42 bus1=bus_34.3 bus2=bus_35.3 linecode=LCode_42 length=1.0 units=km
new linecode.LCode_43 nphases=1 rmatrix=[0.663246] xmatrix=[1.242115] units=km
new line.line_43 bus1=bus_34.3 bus2=bus_36.3 linecode=LCode_43 length=1.0 units=km
new linecode.LCode_44 nphases=1 rmatrix=[0.854324] xmatrix=[1.389749] units=km
new line.line_44 bus1=bus_32.3 bus2=bus_36.3 linecode=LCode_44 length=1.0 units=km
new linecode.LCode_45 nphases=1 rmatrix=[1.368335] xmatrix=[1.319480] units=km
new line.line_45 bus1=bus_33.3 bus2=bus_35.3 linecode=LCode_45 length=1.0 units=km
new linecode.LCode_46 nphases=1 rmatrix=[1.010571] xmatrix=[1.242115] units=km
new line.line_46 bus1=bus_33.3 bus2=bus_36.3 linecode=LCode_46 length=1.0 units=km
new linecode.LCode_47 nphases=1 rmatrix=[0.638206] xmatrix=[1.557396] units=km
new line.line_47 bus1=bus_36.3 bus2=bus_38.3 linecode=LCode_47 length=1.0 units=km
new linecode.LCode_48 nphases=1 rmatrix=[0.590591] xmatrix=[1.549747] units=km
new line.line_48 bus1=bus_36.3 bus2=bus_39.3 linecode=LCode_48 length=1.0 units=km
new linecode.LCode_49 nphases=1 rmatrix=[1.054736] xmatrix=[1.310420] units=km
new line.line_49 bus1=bus_29.2 bus2=bus_37.2 linecode=LCode_49 length=1.0 units=km
new linecode.LCode_50 nphases=1 rmatrix=[0.814907] xmatrix=[1.374260] units=km
new line.line_50 bus1=bus_38.3 bus2=bus_39.3 linecode=LCode_50 length=1.0 units=km
new linecode.LCode_51 nphases=1 rmatrix=[0.675000] xmatrix=[1.242115] units=km
new line.line_51 bus1=bus_39.3 bus2=bus_40.3 linecode=LCode_51 length=1.0 units=km
new linecode.LCode_52 nphases=1 rmatrix=[0.565145] xmatrix=[1.338778] units=km
new line.line_52 bus1=bus_39.3 bus2=bus_41.3 linecode=LCode_52 length=1.0 units=km
new linecode.LCode_53 nphases=2 rmatrix=[0.530031 | 0.059160 0.530031] xmatrix=[1.309486 | 0.940589 1.309486] units=km
new line.line_53 bus1=bus_40.1.3 bus2=bus_41.1.3 linecode=LCode_53 length=1.0 units=km
new linecode.LCode_54 nphases=2 rmatrix=[1.214457 | 0.059160 1.214457] xmatrix=[1.545814 | 0.940589 1.545814] units=km
new line.line_54 bus1=bus_42.1.3 bus2=bus_43.1.3 linecode=LCode_54 length=1.0 units=km
new linecode.LCode_55 nphases=1 rmatrix=[0.832903] xmatrix=[1.242115] units=km
new line.line_55 bus1=bus_33.3 bus2=bus_42.3 linecode=LCode_55 length=1.0 units=km
new linecode.LCode_56 nphases=2 rmatrix=[0.701310 | 0.059160 0.701310] xmatrix=[1.242115 | 0.940589 1.242115] units=km
new line.line_56 bus1=bus_43.1.3 bus2=bus_44.1.3 linecode=LCode_56 length=1.0 units=km
new linecode.LCode_57 nphases=1 rmatrix=[0.794912] xmatrix=[1.242115] units=km
new line.line_57 bus1=bus_44.1 bus2=bus_45.1 linecode=LCode_57 length=1.0 units=km
new linecode.LCode_58 nphases=1 rmatrix=[0.264066] xmatrix=[1.242115] units=km
new line.line_58 bus1=bus_45.1 bus2=bus_46.1 linecode=LCode_58 length=1.0 units=km
new linecode.LCode_59 nphases=1 rmatrix=[0.205861] xmatrix=[1.242115] units=km
new line.line_59 bus1=bus_45.1 bus2=bus_47.1 linecode=LCode_59 length=1.0 units=km
new linecode.LCode_60 nphases=1 rmatrix=[0.677504] xmatrix=[1.321929] units=km
new line.line_60 bus1=bus_46.1 bus2=bus_48.1 linecode=LCode_60 length=1.0 units=km
new linecode.LCode_61 nphases=2 rmatrix=[0.245680 | 0.059160 0.245680] xmatrix=[1.374158 | 0.940589 1.374158] units=km
new line.line_61 bus1=bus_41.1.3 bus2=bus_48.1.3 linecode=LCode_61 length=1.0 units=km
new linecode.LCode_62 nphases=2 rmatrix=[0.903396 | 0.059160 0.903396] xmatrix=[1.242115 | 0.940589 1.242115] units=km
new line.line_62 bus1=bus_41.1.3 bus2=bus_48.1.3 linecode=LCode_62 length=1.0 units=km
new linecode.LCode_63 nphases=2 rmatrix=[0.391777 | 0.059160 0.391777] xmatrix=[1.242115 | 0.940589 1.242115] units=km
new line.line_63 bus1=bus_44.1.3 bus2=bus_48.1.3 linecode=LCode_63 length=1.0 units=km
new linecode.LCode_64 nphases=2 rmatrix=[0.621773 | 0.059160 0.621773] xmatrix=[1.242115 | 0.940589 1.242115] units=km
new line.line_64 bus1=bus_47.1.3 bus2=bus_48.1.3 linecode=LCode_64 length=1.0 units=km
new linecode.LCode_65 nphases=2 rmatrix=[1.033845 | 0.059160 1.033845] xmatrix=[1.242115 | 0.940589 1.242115] units=km
new line.line_65 bus1=bus_48.1.3 bus2=bus_49.1.3 linecode=LCode_65 length=1.0 units=km
new linecode.LCode_66 nphases=2 rmatrix=[0.323743 | 0.059160 0.323743] xmatrix=[1.269724 | 0.940589 1.269724] units=km
new line.line_66 bus1=bus_48.1.3 bus2=bus_50.1.3 linecode=LCode_66 length=1.0 units=km
new linecode.LCode_67 nphases=2 rmatrix=[0.362760 | 0.059160 0.362760] xmatrix=[1.242115 | 0.940589 1.242115] units=km
new line.line_67 bus1=bus_50.1.3 bus2=bus_51.1.3 linecode=LCode_67 length=1.0 units=km
new linecode.LCode_68 nphases=2 rmatrix=[0.848472 | 0.059160 0.848472] xmatrix=[1.249685 | 0.940589 1.249685] units=km
new line.line_68 bus1=bus_51.1.3 bus2=bus_52.1.3 linecode=LCode_68 length=1.0 units=km
new linecode.LCode_69 nphases=2 rmatrix=[0.955982 | 0.059160 0.955982] xmatrix=[1.376929 | 0.940589 1.376929] units=km
new line.line_69 bus1=bus_52.1.3 bus2=bus_53.1.3 linecode=LCode_69 length=1.0 units=km
new linecode.LCode_70 nphases=2 rmatrix=[0.846252 | 0.059160 0.846252] xmatrix=[1.279693 | 0.940589 1.279693] units=km
new line.line_70 bus1=bus_48.1.3 bus2=bus_53.1.3 linecode=LCode_70 length=1.0 units=km
new linecode.LCode_71 nphases=2 rmatrix=[0.651498 | 0.059160 0.651498] xmatrix=[1.280500 | 0.940589 1.280500] units=km
new line.line_71 bus1=bus_48.1.3 bus2=bus_53.1.3 linecode=LCode_71 length=1.0 units=km
new linecode.LCode_73 nphases=1 rmatrix=[0.208339] xmatrix=[1.361729] units=km
new line.line_73 bus1=bus_53.3 bus2=bus_55.3 linecode=LCode_73 length=1.0 units=km
new linecode.LCode_75 nphases=1 rmatrix=[0.739811] xmatrix=[1.306682] units=km
new line.line_75 bus1=bus_55.3 bus2=bus_56.3 linecode=LCode_75 length=1.0 units=km
new linecode.LCode_76 nphases=2 rmatrix=[0.235822 | 0.059160 0.235822] xmatrix=[1.368565 | 0.940589 1.368565] units=km
new line.line_76 bus1=bus_49.1.3 bus2=bus_56.1.3 linecode=LCode_76 length=1.0 units=km
new linecode.LCode_77 nphases=1 rmatrix=[0.213064] xmatrix=[1.242115] units=km
new line.line_77 bus1=bus_55.3 bus2=bus_57.3 linecode=LCode_77 length=1.0 units=km
new linecode.LCode_78 nphases=2 rmatrix=[0.269792 | 0.059160 0.269792] xmatrix=[1.484046 | 0.940589 1.484046] units=km
new line.line_78 bus1=bus_50.1.3 bus2=bus_57.1.3 linecode=LCode_78 length=1.0 units=km
new linecode.LCode_79 nphases=1 rmatrix=[0.177988] xmatrix=[1.242115] units=km
new line.line_79 bus1=bus_53.3 bus2=bus_58.3 linecode=LCode_79 length=1.0 units=km
new linecode.LCode_80 nphases=1 rmatrix=[0.892778] xmatrix=[1.242115] units=km
new line.line_80 bus1=bus_55.3 bus2=bus_58.3 linecode=LCode_80 length=1.0 units=km
new linecode.LCode_81 nphases=1 rmatrix=[0.782254] xmatrix=[1.242115] units=km
new line.line_81 bus1=bus_55.3 bus2=bus_58.3 linecode=LCode_81 length=1.0 units=km
new linecode.LCode_83 nphases=1 rmatrix=[0.657943] xmatrix=[1.597175] units=km
new line.line_83 bus1=bus_58.3 bus2=bus_59.3 linecode=LCode_83 length=1.0 units=km
new linecode.LCode_84 nphases=1 rmatrix=[0.609730] xmatrix=[1.490693] units=km
new line.line_84 bus1=bus_58.3 bus2=bus_60.3 linecode=LCode_84 length=1.0 units=km
new linecode.LCode_85 nphases=1 rmatrix=[0.974561] xmatrix=[1.406187] units=km
new line.line_85 bus1=bus_59.3 bus2=bus_60.3 linecode=LCode_85 length=1.0 units=km
new linecode.LCode_86 nphases=1 rmatrix=[0.955397] xmatrix=[1.421475] units=km
new line.line_86 bus1=bus_59.3 bus2=bus_61.3 linecode=LCode_86 length=1.0 units=km
new linecode.LCode_87 nphases=1 rmatrix=[0.492375] xmatrix=[1.248694] units=km
new line.line_87 bus1=bus_60.3 bus2=bus_61.3 linecode=LCode_87 length=1.0 units=km
new linecode.LCode_88 nphases=1 rmatrix=[0.638843] xmatrix=[1.249180] units=km
new line.line_88 bus1=bus_62.2 bus2=bus_63.2 linecode=LCode_88 length=1.0 units=km
new linecode.LCode_89 nphases=1 rmatrix=[0.312634] xmatrix=[1.242115] units=km
new line.line_89 bus1=bus_37.2 bus2=bus_64.2 linecode=LCode_89 length=1.0 units=km
new linecode.LCode_90 nphases=1 rmatrix=[0.192170] xmatrix=[1.242115] units=km
new line.line_90 bus1=bus_63.2 bus2=bus_64.2 linecode=LCode_90 length=1.0 units=km
new linecode.LCode_91 nphases=2 rmatrix=[1.477808 | 0.059160 1.477808] xmatrix=[1.242115 | 0.940589 1.242115] units=km
new line.line_91 bus1=bus_48.1.3 bus2=bus_65.1.3 linecode=LCode_91 length=1.0 units=km
new linecode.LCode_92 nphases=2 rmatrix=[0.258549 | 0.059160 0.258549] xmatrix=[1.353686 | 0.940589 1.353686] units=km
new line.line_92 bus1=bus_48.1.3 bus2=bus_65.1.3 linecode=LCode_92 length=1.0 units=km
new linecode.LCode_93 nphases=1 rmatrix=[0.682990] xmatrix=[1.293002] units=km
new line.line_93 bus1=bus_61.3 bus2=bus_65.3 linecode=LCode_93 length=1.0 units=km
new linecode.LCode_94 nphases=1 rmatrix=[0.282518] xmatrix=[1.376041] units=km
new line.line_94 bus1=bus_61.3 bus2=bus_66.3 linecode=LCode_94 length=1.0 units=km
new linecode.LCode_95 nphases=2 rmatrix=[0.924898 | 0.059160 0.924898] xmatrix=[1.242115 | 0.940589 1.242115] units=km
new line.line_95 bus1=bus_65.1.3 bus2=bus_66.1.3 linecode=LCode_95 length=1.0 units=km
new linecode.LCode_96 nphases=1 rmatrix=[1.334475] xmatrix=[1.242115] units=km
new line.line_96 bus1=bus_46.1 bus2=bus_68.1 linecode=LCode_96 length=1.0 units=km
new linecode.LCode_97 nphases=2 rmatrix=[0.536593 | 0.059160 0.536593] xmatrix=[1.242115 | 0.940589 1.242115] units=km
new line.line_97 bus1=bus_48.1.3 bus2=bus_68.1.3 linecode=LCode_97 length=1.0 units=km
new linecode.LCode_98 nphases=2 rmatrix=[0.635894 | 0.059160 0.635894] xmatrix=[1.242115 | 0.940589 1.242115] units=km
new line.line_98 bus1=bus_68.1.3 bus2=bus_69.1.3 linecode=LCode_98 length=1.0 units=km
new linecode.LCode_99 nphases=2 rmatrix=[0.956903 | 0.059160 0.956903] xmatrix=[1.603411 | 0.940589 1.603411] units=km
new line.line_99 bus1=bus_23.1.3 bus2=bus_69.1.3 linecode=LCode_99 length=1.0 units=km
new linecode.LCode_101 nphases=2 rmatrix=[0.987569 | 0.059160 0.987569] xmatrix=[1.418395 | 0.940589 1.418395] units=km
new line.line_101 bus1=bus_23.1.3 bus2=bus_71.1.3 linecode=LCode_101 length=1.0 units=km
new linecode.LCode_103 nphases=1 rmatrix=[0.271181] xmatrix=[1.321532] units=km
new line.line_103 bus1=bus_70.2 bus2=bus_72.2 linecode=LCode_103 length=1.0 units=km
new linecode.LCode_104 nphases=2 rmatrix=[0.329519 | 0.059160 0.329519] xmatrix=[1.269027 | 0.940589 1.269027] units=km
new line.line_104 bus1=bus_69.1.3 bus2=bus_73.1.3 linecode=LCode_104 length=1.0 units=km
new linecode.LCode_105 nphases=1 rmatrix=[0.723773] xmatrix=[1.469681] units=km
new line.line_105 bus1=bus_69.1 bus2=bus_74.1 linecode=LCode_105 length=1.0 units=km
new linecode.LCode_106 nphases=2 rmatrix=[0.220232 | 0.059160 0.220232] xmatrix=[1.242115 | 1.024695 1.242115] units=km
new line.line_106 bus1=bus_68.1.2 bus2=bus_74.1.2 linecode=LCode_106 length=1.0 units=km
new linecode.LCode_107 nphases=1 rmatrix=[0.907881] xmatrix=[1.242115] units=km
new line.line_107 bus1=bus_73.1 bus2=bus_74.1 linecode=LCode_107 length=1.0 units=km
new linecode.LCode_108 nphases=2 rmatrix=[0.231559 | 0.059160 0.231559] xmatrix=[1.333957 | 1.024695 1.333957] units=km
new line.line_108 bus1=bus_75.1.2 bus2=bus_76.1.2 linecode=LCode_108 length=1.0 units=km
new linecode.LCode_109 nphases=2 rmatrix=[0.172597 | 0.059160 0.172597] xmatrix=[1.381651 | 1.024695 1.381651] units=km
new line.line_109 bus1=bus_68.1.2 bus2=bus_76.1.2 linecode=LCode_109 length=1.0 units=km
new linecode.LCode_110 nphases=2 rmatrix=[0.198915 | 0.059160 0.198915] xmatrix=[1.409614 | 1.024695 1.409614] units=km
new line.line_110 bus1=bus_74.1.2 bus2=bus_76.1.2 linecode=LCode_110 length=1.0 units=km
new linecode.LCode_111 nphases=2 rmatrix=[0.780992 | 0.059160 0.780992] xmatrix=[1.242115 | 1.024695 1.242115] units=km
new line.line_111 bus1=bus_76.1.2 bus2=bus_77.1.2 linecode=LCode_111 length=1.0 units=km
new linecode.LCode_112 nphases=2 rmatrix=[0.319562 | 0.059160 0.319562] xmatrix=[1.390784 | 1.024695 1.390784] units=km
new line.line_112 bus1=bus_77.1.2 bus2=bus_78.1.2 linecode=LCode_112 length=1.0 units=km
new linecode.LCode_113 nphases=1 rmatrix=[0.628733] xmatrix=[1.478900] units=km
new line.line_113 bus1=bus_76.2 bus2=bus_79.2 linecode=LCode_113 length=1.0 units=km
new linecode.LCode_114 nphases=1 rmatrix=[0.399998] xmatrix=[1.331460] units=km
new line.line_114 bus1=bus_76.2 bus2=bus_79.2 linecode=LCode_114 length=1.0 units=km
new linecode.LCode_115 nphases=1 rmatrix=[0.669131] xmatrix=[1.360291] units=km
new line.line_115 bus1=bus_78.2 bus2=bus_79.2 linecode=LCode_115 length=1.0 units=km
new linecode.LCode_116 nphases=2 rmatrix=[0.445344 | 0.059160 0.445344] xmatrix=[1.242115 | 1.024695 1.242115] units=km
new line.line_116 bus1=bus_76.1.2 bus2=bus_81.1.2 linecode=LCode_116 length=1.0 units=km
new linecode.LCode_117 nphases=2 rmatrix=[0.499061 | 0.059160 0.499061] xmatrix=[1.242115 | 1.024695 1.242115] units=km
new line.line_117 bus1=bus_81.1.2 bus2=bus_82.1.2 linecode=LCode_117 length=1.0 units=km
new linecode.LCode_118 nphases=2 rmatrix=[0.837346 | 0.059160 0.837346] xmatrix=[1.535521 | 1.024695 1.535521] units=km
new line.line_118 bus1=bus_82.1.2 bus2=bus_83.1.2 linecode=LCode_118 length=1.0 units=km
new linecode.LCode_119 nphases=2 rmatrix=[0.347642 | 0.059160 0.347642] xmatrix=[1.434802 | 1.024695 1.434802] units=km
new line.line_119 bus1=bus_82.1.2 bus2=bus_84.1.2 linecode=LCode_119 length=1.0 units=km
new linecode.LCode_120 nphases=2 rmatrix=[0.838591 | 0.059160 0.838591] xmatrix=[1.384072 | 1.024695 1.384072] units=km
new line.line_120 bus1=bus_83.1.2 bus2=bus_84.1.2 linecode=LCode_120 length=1.0 units=km
new linecode.LCode_121 nphases=2 rmatrix=[0.242601 | 0.059160 0.242601] xmatrix=[1.242115 | 1.024695 1.242115] units=km
new line.line_121 bus1=bus_84.1.2 bus2=bus_85.1.2 linecode=LCode_121 length=1.0 units=km
new linecode.LCode_122 nphases=2 rmatrix=[0.679393 | 0.059160 0.679393] xmatrix=[1.242115 | 1.024695 1.242115] units=km
new line.line_122 bus1=bus_84.1.2 bus2=bus_87.1.2 linecode=LCode_122 length=1.0 units=km
new linecode.LCode_123 nphases=1 rmatrix=[0.805424] xmatrix=[1.558797] units=km
new line.line_123 bus1=bus_84.2 bus2=bus_88.2 linecode=LCode_123 length=1.0 units=km
new linecode.LCode_124 nphases=1 rmatrix=[0.794242] xmatrix=[1.242115] units=km
new line.line_124 bus1=bus_87.2 bus2=bus_88.2 linecode=LCode_124 length=1.0 units=km
new linecode.LCode_125 nphases=1 rmatrix=[0.280925] xmatrix=[1.242115] units=km
new line.line_125 bus1=bus_88.2 bus2=bus_89.2 linecode=LCode_125 length=1.0 units=km
new linecode.LCode_126 nphases=1 rmatrix=[0.887883] xmatrix=[1.495319] units=km
new line.line_126 bus1=bus_88.2 bus2=bus_89.2 linecode=LCode_126 length=1.0 units=km
new linecode.LCode_127 nphases=1 rmatrix=[0.424398] xmatrix=[1.314446] units=km
new line.line_127 bus1=bus_89.2 bus2=bus_90.2 linecode=LCode_127 length=1.0 units=km
new linecode.LCode_128 nphases=1 rmatrix=[0.195956] xmatrix=[1.242115] units=km
new line.line_128 bus1=bus_88.2 bus2=bus_91.2 linecode=LCode_128 length=1.0 units=km
new linecode.LCode_129 nphases=1 rmatrix=[0.720647] xmatrix=[1.242115] units=km
new line.line_129 bus1=bus_88.2 bus2=bus_91.2 linecode=LCode_129 length=1.0 units=km
new linecode.LCode_130 nphases=1 rmatrix=[1.205965] xmatrix=[1.305819] units=km
new line.line_130 bus1=bus_90.2 bus2=bus_91.2 linecode=LCode_130 length=1.0 units=km
new linecode.LCode_131 nphases=1 rmatrix=[0.225642] xmatrix=[1.296253] units=km
new line.line_131 bus1=bus_91.2 bus2=bus_92.2 linecode=LCode_131 length=1.0 units=km
new linecode.LCode_132 nphases=1 rmatrix=[1.179013] xmatrix=[1.242115] units=km
new line.line_132 bus1=bus_91.2 bus2=bus_93.2 linecode=LCode_132 length=1.0 units=km
new linecode.LCode_133 nphases=1 rmatrix=[0.716847] xmatrix=[1.363262] units=km
new line.line_133 bus1=bus_92.2 bus2=bus_93.2 linecode=LCode_133 length=1.0 units=km
new linecode.LCode_134 nphases=1 rmatrix=[0.632133] xmatrix=[1.274749] units=km
new line.line_134 bus1=bus_93.2 bus2=bus_94.2 linecode=LCode_134 length=1.0 units=km
new linecode.LCode_135 nphases=1 rmatrix=[0.582141] xmatrix=[1.290130] units=km
new line.line_135 bus1=bus_79.2 bus2=bus_95.2 linecode=LCode_135 length=1.0 units=km
new linecode.LCode_136 nphases=1 rmatrix=[1.129250] xmatrix=[1.280991] units=km
new line.line_136 bus1=bus_81.2 bus2=bus_95.2 linecode=LCode_136 length=1.0 units=km
new linecode.LCode_137 nphases=1 rmatrix=[0.441742] xmatrix=[1.247132] units=km
new line.line_137 bus1=bus_93.2 bus2=bus_95.2 linecode=LCode_137 length=1.0 units=km
new linecode.LCode_138 nphases=1 rmatrix=[0.711765] xmatrix=[1.370839] units=km
new line.line_138 bus1=bus_79.2 bus2=bus_96.2 linecode=LCode_138 length=1.0 units=km
new linecode.LCode_139 nphases=1 rmatrix=[0.792479] xmatrix=[1.418507] units=km
new line.line_139 bus1=bus_79.2 bus2=bus_97.2 linecode=LCode_139 length=1.0 units=km
new linecode.LCode_140 nphases=1 rmatrix=[0.818790] xmatrix=[1.242115] units=km
new line.line_140 bus1=bus_79.2 bus2=bus_98.2 linecode=LCode_140 length=1.0 units=km
new linecode.LCode_141 nphases=1 rmatrix=[0.680315] xmatrix=[1.242115] units=km
new line.line_141 bus1=bus_91.2 bus2=bus_99.2 linecode=LCode_141 length=1.0 units=km
new linecode.LCode_142 nphases=1 rmatrix=[0.802326] xmatrix=[1.508318] units=km
new line.line_142 bus1=bus_93.2 bus2=bus_99.2 linecode=LCode_142 length=1.0 units=km
new linecode.LCode_143 nphases=1 rmatrix=[0.356614] xmatrix=[1.353835] units=km
new line.line_143 bus1=bus_94.2 bus2=bus_95.2 linecode=LCode_143 length=1.0 units=km
new linecode.LCode_144 nphases=1 rmatrix=[0.821505] xmatrix=[1.302537] units=km
new line.line_144 bus1=bus_95.2 bus2=bus_96.2 linecode=LCode_144 length=1.0 units=km
new linecode.LCode_145 nphases=1 rmatrix=[0.877261] xmatrix=[1.293211] units=km
new line.line_145 bus1=bus_97.2 bus2=bus_99.2 linecode=LCode_145 length=1.0 units=km
new linecode.LCode_146 nphases=1 rmatrix=[0.844550] xmatrix=[1.242115] units=km
new line.line_146 bus1=bus_98.2 bus2=bus_99.2 linecode=LCode_146 length=1.0 units=km
new linecode.LCode_147 nphases=1 rmatrix=[0.941633] xmatrix=[1.242115] units=km
new line.line_147 bus1=bus_99.2 bus2=bus_100.2 linecode=LCode_147 length=1.0 units=km
new linecode.LCode_148 nphases=1 rmatrix=[0.994083] xmatrix=[1.302861] units=km
new line.line_148 bus1=bus_91.2 bus2=bus_101.2 linecode=LCode_148 length=1.0 units=km
new linecode.LCode_149 nphases=1 rmatrix=[0.771531] xmatrix=[1.242115] units=km
new line.line_149 bus1=bus_100.2 bus2=bus_101.2 linecode=LCode_149 length=1.0 units=km
new linecode.LCode_150 nphases=1 rmatrix=[0.793038] xmatrix=[1.408284] units=km
new line.line_150 bus1=bus_99.2 bus2=bus_102.2 linecode=LCode_150 length=1.0 units=km
new linecode.LCode_151 nphases=1 rmatrix=[0.728469] xmatrix=[1.242115] units=km
new line.line_151 bus1=bus_99.2 bus2=bus_103.2 linecode=LCode_151 length=1.0 units=km
new linecode.LCode_152 nphases=1 rmatrix=[0.494776] xmatrix=[1.261090] units=km
new line.line_152 bus1=bus_102.2 bus2=bus_103.2 linecode=LCode_152 length=1.0 units=km
new linecode.LCode_153 nphases=1 rmatrix=[0.630713] xmatrix=[1.242115] units=km
new line.line_153 bus1=bus_102.2 bus2=bus_104.2 linecode=LCode_153 length=1.0 units=km
new linecode.LCode_154 nphases=1 rmatrix=[0.281354] xmatrix=[1.258044] units=km
new line.line_154 bus1=bus_99.2 bus2=bus_105.2 linecode=LCode_154 length=1.0 units=km
new linecode.LCode_155 nphases=1 rmatrix=[0.869908] xmatrix=[1.328032] units=km
new line.line_155 bus1=bus_103.2 bus2=bus_104.2 linecode=LCode_155 length=1.0 units=km
new linecode.LCode_156 nphases=1 rmatrix=[0.778792] xmatrix=[1.347986] units=km
new line.line_156 bus1=bus_104.2 bus2=bus_105.2 linecode=LCode_156 length=1.0 units=km
new linecode.LCode_157 nphases=1 rmatrix=[0.700762] xmatrix=[1.242115] units=km
new line.line_157 bus1=bus_104.2 bus2=bus_106.2 linecode=LCode_157 length=1.0 units=km
new linecode.LCode_158 nphases=1 rmatrix=[0.564881] xmatrix=[1.242115] units=km
new line.line_158 bus1=bus_104.2 bus2=bus_107.2 linecode=LCode_158 length=1.0 units=km
new linecode.LCode_159 nphases=1 rmatrix=[0.864609] xmatrix=[1.268565] units=km
new line.line_159 bus1=bus_105.2 bus2=bus_106.2 linecode=LCode_159 length=1.0 units=km
new linecode.LCode_160 nphases=1 rmatrix=[1.257850] xmatrix=[1.242115] units=km
new line.line_160 bus1=bus_107.2 bus2=bus_108.2 linecode=LCode_160 length=1.0 units=km
new linecode.LCode_161 nphases=1 rmatrix=[0.408121] xmatrix=[1.387502] units=km
new line.line_161 bus1=bus_102.2 bus2=bus_109.2 linecode=LCode_161 length=1.0 units=km
new linecode.LCode_162 nphases=1 rmatrix=[0.889638] xmatrix=[1.451659] units=km
new line.line_162 bus1=bus_108.2 bus2=bus_109.2 linecode=LCode_162 length=1.0 units=km
new linecode.LCode_163 nphases=1 rmatrix=[0.532172] xmatrix=[1.573708] units=km
new line.line_163 bus1=bus_109.2 bus2=bus_110.2 linecode=LCode_163 length=1.0 units=km
new linecode.LCode_164 nphases=1 rmatrix=[0.793608] xmatrix=[1.269881] units=km
new line.line_164 bus1=bus_109.2 bus2=bus_111.2 linecode=LCode_164 length=1.0 units=km
new linecode.LCode_166 nphases=1 rmatrix=[0.437639] xmatrix=[1.242115] units=km
new line.line_166 bus1=bus_31.3 bus2=bus_112.3 linecode=LCode_166 length=1.0 units=km
new linecode.LCode_167 nphases=1 rmatrix=[0.260531] xmatrix=[1.351498] units=km
new line.line_167 bus1=bus_31.3 bus2=bus_113.3 linecode=LCode_167 length=1.0 units=km
new linecode.LCode_168 nphases=1 rmatrix=[0.733087] xmatrix=[1.242115] units=km
new line.line_168 bus1=bus_26.3 bus2=bus_114.3 linecode=LCode_168 length=1.0 units=km
new linecode.LCode_169 nphases=1 rmatrix=[1.008346] xmatrix=[1.258692] units=km
new line.line_169 bus1=bus_113.3 bus2=bus_114.3 linecode=LCode_169 length=1.0 units=km
new linecode.LCode_170 nphases=1 rmatrix=[0.654928] xmatrix=[1.242115] units=km
new line.line_170 bus1=bus_11.2 bus2=bus_116.2 linecode=LCode_170 length=1.0 units=km
new linecode.LCode_171 nphases=2 rmatrix=[0.597410 | 0.059160 0.597410] xmatrix=[1.454445 | 1.024695 1.454445] units=km
new line.line_171 bus1=bus_74.1.2 bus2=bus_117.1.2 linecode=LCode_171 length=1.0 units=km
new linecode.LCode_172 nphases=2 rmatrix=[0.573872 | 0.059160 0.573872] xmatrix=[1.916666 | 1.024695 1.916666] units=km
new line.line_172 bus1=bus_75.1.2 bus2=bus_117.1.2 linecode=LCode_172 length=1.0 units=km

!---------------- LOADS ----------------

new load.load_0_B bus1=bus_0.2 Phases=1 kv=157.6864406779661 kw=1842.7183875744768 kvar=604.4116311244284 vminpu=0.85
new load.load_1_B bus1=bus_1.2 Phases=1 kv=157.6864406779661 kw=1377.744195792577 kvar=451.9000962199653 vminpu=0.85
new load.load_2_B bus1=bus_2.2 Phases=1 kv=157.6864406779661 kw=1566.647536904422 kvar=513.8603921046504 vminpu=0.85
new load.load_3_B bus1=bus_3.2 Phases=1 kv=157.6864406779661 kw=2072.0318697908856 kvar=679.6264532914105 vminpu=0.85
new load.load_4_B bus1=bus_4.2 Phases=1 kv=157.6864406779661 kw=3101.6484904011804 kvar=1017.3407048515872 vminpu=0.85
new load.load_5_B bus1=bus_5.2 Phases=1 kv=157.6864406779661 kw=1720.4006566726264 kvar=564.2914153886214 vminpu=0.85
new load.load_6_B bus1=bus_6.2 Phases=1 kv=157.6864406779661 kw=1610.1756984079989 kvar=528.1376290778237 vminpu=0.85
new load.load_7_B bus1=bus_7.2 Phases=1 kv=157.6864406779661 kw=1847.585379829797 kvar=606.0080045841734 vminpu=0.85
new load.load_8_B bus1=bus_8.2 Phases=1 kv=157.6864406779661 kw=2306.2129991459024 kvar=756.437863719856 vminpu=0.85
new load.load_9_B bus1=bus_9.2 Phases=1 kv=157.6864406779661 kw=2493.004025106742 kvar=817.7053202350114 vminpu=0.85
new load.load_10_B bus1=bus_10.2 Phases=1 kv=157.6864406779661 kw=1632.5544073703138 kvar=535.477845617463 vminpu=0.85
new load.load_11_B bus1=bus_11.2 Phases=1 kv=157.6864406779661 kw=2232.3037219219427 kvar=732.1956207903972 vminpu=0.85
new load.load_12_C bus1=bus_12.3 Phases=1 kv=157.6864406779661 kw=2727.941976987884 kvar=894.764968452026 vminpu=0.85
new load.load_13_C bus1=bus_13.3 Phases=1 kv=157.6864406779661 kw=2286.771694893306 kvar=750.0611159250044 vminpu=0.85
new load.load_14_C bus1=bus_14.3 Phases=1 kv=157.6864406779661 kw=2146.3991797169056 kvar=704.018930947145 vminpu=0.85
new load.load_15_B bus1=bus_15.2 Phases=1 kv=157.6864406779661 kw=1891.742791640503 kvar=620.491635658085 vminpu=0.85
new load.load_16_B bus1=bus_16.2 Phases=1 kv=157.6864406779661 kw=1981.626513542834 kvar=649.9734964420495 vminpu=0.85
new load.load_17_B bus1=bus_17.2 Phases=1 kv=157.6864406779661 kw=2185.455075315603 kvar=716.8292647035179 vminpu=0.85
new load.load_18_C bus1=bus_18.3 Phases=1 kv=157.6864406779661 kw=1585.364545397828 kvar=519.9995708904876 vminpu=0.85
new load.load_19_C bus1=bus_19.3 Phases=1 kv=157.6864406779661 kw=1906.0951862006232 kvar=625.1992210738044 vminpu=0.85
new load.load_20_C bus1=bus_20.3 Phases=1 kv=157.6864406779661 kw=1971.4574928752916 kvar=646.6380576630957 vminpu=0.85
new load.load_21_C bus1=bus_21.3 Phases=1 kv=157.6864406779661 kw=1999.2529239416208 kvar=655.7549590528516 vminpu=0.85
new load.load_22_C bus1=bus_22.3 Phases=1 kv=157.6864406779661 kw=1902.8239926431047 kvar=624.1262695869384 vminpu=0.85
new load.load_23_A bus1=bus_23.1 Phases=1 kv=157.6864406779661 kw=463.8003825397683 kvar=152.126525473044 vminpu=0.85
new load.load_23_C bus1=bus_23.3 Phases=1 kv=157.6864406779661 kw=1355.987245330786 kvar=444.7638164684978 vminpu=0.85
new load.load_24_C bus1=bus_24.3 Phases=1 kv=157.6864406779661 kw=2389.523441190973 kvar=783.7636887106391 vminpu=0.85
new load.load_25_C bus1=bus_25.3 Phases=1 kv=157.6864406779661 kw=2579.6826935326785 kvar=846.1359234787186 vminpu=0.85
new load.load_26_C bus1=bus_26.3 Phases=1 kv=157.6864406779661 kw=2088.7091290208296 kvar=685.0965943188321 vminpu=0.85
new load.load_27_C bus1=bus_27.3 Phases=1 kv=157.6864406779661 kw=1578.5727133598134 kvar=517.7718499820188 vminpu=0.85
new load.load_28_C bus1=bus_28.3 Phases=1 kv=157.6864406779661 kw=2569.940271313259 kvar=842.940408990749 vminpu=0.85
new load.load_29_B bus1=bus_29.2 Phases=1 kv=157.6864406779661 kw=2266.471435872327 kvar=743.4026309661234 vminpu=0.85
new load.load_30_C bus1=bus_30.3 Phases=1 kv=157.6864406779661 kw=2992.3190768236022 kvar=981.4806571981416 vminpu=0.85
new load.load_31_C bus1=bus_31.3 Phases=1 kv=157.6864406779661 kw=1257.272000267635 kvar=412.3852160877843 vminpu=0.85
new load.load_32_C bus1=bus_32.3 Phases=1 kv=157.6864406779661 kw=1590.7599209142843 kvar=521.7692540598853 vminpu=0.85
new load.load_33_C bus1=bus_33.3 Phases=1 kv=157.6864406779661 kw=2086.8973485717847 kvar=684.5023303315454 vminpu=0.85
new load.load_34_C bus1=bus_34.3 Phases=1 kv=157.6864406779661 kw=2044.2575008525664 kvar=670.5164602796418 vminpu=0.85
new load.load_35_C bus1=bus_35.3 Phases=1 kv=157.6864406779661 kw=1952.3595424292223 kvar=640.373929916785 vminpu=0.85
new load.load_36_C bus1=bus_36.3 Phases=1 kv=157.6864406779661 kw=2627.9893921441526 kvar=861.9805206232821 vminpu=0.85
new load.load_37_B bus1=bus_37.2 Phases=1 kv=157.6864406779661 kw=2035.3875382283657 kvar=667.607112538904 vminpu=0.85
new load.load_38_C bus1=bus_38.3 Phases=1 kv=157.6864406779661 kw=2461.996232507283 kvar=807.5347642623889 vminpu=0.85
new load.load_39_C bus1=bus_39.3 Phases=1 kv=157.6864406779661 kw=1920.95016469831 kvar=630.0716540210457 vminpu=0.85
new load.load_40_A bus1=bus_40.1 Phases=1 kv=157.6864406779661 kw=1916.9717384162732 kvar=628.7667302005376 vminpu=0.85
new load.load_40_C bus1=bus_40.3 Phases=1 kv=157.6864406779661 kw=191.86297260892115 kvar=62.931055015726145 vminpu=0.85
new load.load_41_A bus1=bus_41.1 Phases=1 kv=157.6864406779661 kw=1039.5976210504664 kvar=340.988019704553 vminpu=0.85
new load.load_41_C bus1=bus_41.3 Phases=1 kv=157.6864406779661 kw=670.204436679087 kvar=219.82705523074057 vminpu=0.85
new load.load_42_A bus1=bus_42.1 Phases=1 kv=157.6864406779661 kw=1977.808915350705 kvar=648.7213242350313 vminpu=0.85
new load.load_42_C bus1=bus_42.3 Phases=1 kv=157.6864406779661 kw=514.594733878693 kvar=168.7870727122113 vminpu=0.85
new load.load_43_A bus1=bus_43.1 Phases=1 kv=157.6864406779661 kw=206.8024611659069 kvar=67.83120726241746 vminpu=0.85
new load.load_43_C bus1=bus_43.3 Phases=1 kv=157.6864406779661 kw=1434.0476043382398 kvar=470.3676142229427 vminpu=0.85
new load.load_44_A bus1=bus_44.1 Phases=1 kv=157.6864406779661 kw=67.88993481891848 kvar=22.267898620605262 vminpu=0.85
new load.load_44_C bus1=bus_44.3 Phases=1 kv=157.6864406779661 kw=2024.8735720075451 kvar=664.1585316184749 vminpu=0.85
new load.load_45_A bus1=bus_45.1 Phases=1 kv=157.6864406779661 kw=1910.3759953739293 kvar=626.6033264826489 vminpu=0.85
new load.load_46_A bus1=bus_46.1 Phases=1 kv=157.6864406779661 kw=2218.7763823435325 kvar=727.7586534086787 vminpu=0.85
new load.load_47_A bus1=bus_47.1 Phases=1 kv=157.6864406779661 kw=273.7574152469601 kvar=89.79243220100291 vminpu=0.85
new load.load_47_C bus1=bus_47.3 Phases=1 kv=157.6864406779661 kw=2114.364922532937 kvar=693.5116945908034 vminpu=0.85
new load.load_48_A bus1=bus_48.1 Phases=1 kv=157.6864406779661 kw=263.8260783068781 kvar=86.53495368465603 vminpu=0.85
new load.load_48_C bus1=bus_48.3 Phases=1 kv=157.6864406779661 kw=1942.224565806836 kvar=637.0496575846422 vminpu=0.85
new load.load_49_A bus1=bus_49.1 Phases=1 kv=157.6864406779661 kw=359.2259441766684 kvar=117.82610968994724 vminpu=0.85
new load.load_49_C bus1=bus_49.3 Phases=1 kv=157.6864406779661 kw=1734.17406136074 kvar=568.8090921263228 vminpu=0.85
new load.load_50_A bus1=bus_50.1 Phases=1 kv=157.6864406779661 kw=1207.6213719384086 kvar=396.09980999579807 vminpu=0.85
new load.load_50_C bus1=bus_50.3 Phases=1 kv=157.6864406779661 kw=578.716481475431 kvar=189.81900592394138 vminpu=0.85
new load.load_51_A bus1=bus_51.1 Phases=1 kv=157.6864406779661 kw=716.3183573974949 kvar=234.95242122637833 vminpu=0.85
new load.load_51_C bus1=bus_51.3 Phases=1 kv=157.6864406779661 kw=1665.236576281344 kvar=546.1975970202809 vminpu=0.85
new load.load_52_A bus1=bus_52.1 Phases=1 kv=157.6864406779661 kw=628.9457217569495 kvar=206.29419673627945 vminpu=0.85
new load.load_52_C bus1=bus_52.3 Phases=1 kv=157.6864406779661 kw=2232.188593049793 kvar=732.1578585203321 vminpu=0.85
new load.load_53_A bus1=bus_53.1 Phases=1 kv=157.6864406779661 kw=72.12834284757878 kvar=23.65809645400584 vminpu=0.85
new load.load_53_C bus1=bus_53.3 Phases=1 kv=157.6864406779661 kw=2081.6560577313944 kvar=682.7831869358974 vminpu=0.85
new load.load_54_B bus1=bus_54.2 Phases=1 kv=157.6864406779661 kw=1767.1444656546532 kvar=579.6233847347263 vminpu=0.85
new load.load_55_C bus1=bus_55.3 Phases=1 kv=157.6864406779661 kw=1738.1288569852925 kvar=570.1062650911759 vminpu=0.85
new load.load_56_A bus1=bus_56.1 Phases=1 kv=157.6864406779661 kw=717.6539476275613 kvar=235.3904948218401 vminpu=0.85
new load.load_56_C bus1=bus_56.3 Phases=1 kv=157.6864406779661 kw=883.5188406395123 kvar=289.79417972976006 vminpu=0.85
new load.load_57_A bus1=bus_57.1 Phases=1 kv=157.6864406779661 kw=351.68376474059903 kvar=115.35227483491649 vminpu=0.85
new load.load_57_C bus1=bus_57.3 Phases=1 kv=157.6864406779661 kw=1629.434543038922 kvar=534.4545301167664 vminpu=0.85
new load.load_58_C bus1=bus_58.3 Phases=1 kv=157.6864406779661 kw=2117.550568651631 kvar=694.5565865177349 vminpu=0.85
new load.load_59_C bus1=bus_59.3 Phases=1 kv=157.6864406779661 kw=1872.1646296477784 kvar=614.0699985244713 vminpu=0.85
new load.load_60_C bus1=bus_60.3 Phases=1 kv=157.6864406779661 kw=2123.39506032214 kvar=696.473579785662 vminpu=0.85
new load.load_61_C bus1=bus_61.3 Phases=1 kv=157.6864406779661 kw=2279.1592446574846 kvar=747.564232247655 vminpu=0.85
new load.load_62_B bus1=bus_62.2 Phases=1 kv=157.6864406779661 kw=2069.419183733716 kvar=678.7694922646589 vminpu=0.85
new load.load_63_B bus1=bus_63.2 Phases=1 kv=157.6864406779661 kw=2111.5886584909053 kvar=692.601079985017 vminpu=0.85
new load.load_64_B bus1=bus_64.2 Phases=1 kv=157.6864406779661 kw=1049.711884394946 kvar=344.30549808154234 vminpu=0.85
new load.load_65_A bus1=bus_65.1 Phases=1 kv=157.6864406779661 kw=214.88805837699675 kvar=70.48328314765494 vminpu=0.85
new load.load_65_C bus1=bus_65.3 Phases=1 kv=157.6864406779661 kw=1455.9866912074754 kvar=477.5636347160519 vminpu=0.85
new load.load_66_A bus1=bus_66.1 Phases=1 kv=157.6864406779661 kw=1242.7860072160795 kvar=407.6338103668741 vminpu=0.85
new load.load_66_C bus1=bus_66.3 Phases=1 kv=157.6864406779661 kw=863.6229847390773 kvar=283.2683389944174 vminpu=0.85
new load.load_67_A bus1=bus_67.1 Phases=1 kv=157.6864406779661 kw=1789.5607879305592 kvar=586.9759384412234 vminpu=0.85
new load.load_67_C bus1=bus_67.3 Phases=1 kv=157.6864406779661 kw=1101.2576614425363 kvar=361.21251295315193 vminpu=0.85
new load.load_69_A bus1=bus_69.1 Phases=1 kv=157.6864406779661 kw=202.33297743402588 kvar=66.36521659836049 vminpu=0.85
new load.load_69_C bus1=bus_69.3 Phases=1 kv=157.6864406779661 kw=1870.177685875788 kvar=613.4182809672585 vminpu=0.85
new load.load_70_B bus1=bus_70.2 Phases=1 kv=157.6864406779661 kw=1764.3532284759228 kvar=578.7078589401027 vminpu=0.85
new load.load_71_A bus1=bus_71.1 Phases=1 kv=157.6864406779661 kw=206.1705764221769 kvar=67.62394906647403 vminpu=0.85
new load.load_71_C bus1=bus_71.3 Phases=1 kv=157.6864406779661 kw=1023.5560729117316 kvar=335.726391915048 vminpu=0.85
new load.load_72_B bus1=bus_72.2 Phases=1 kv=157.6864406779661 kw=1616.421801864458 kvar=530.1863510115422 vminpu=0.85
new load.load_73_A bus1=bus_73.1 Phases=1 kv=157.6864406779661 kw=1155.6086780804071 kvar=379.03964641037356 vminpu=0.85
new load.load_73_C bus1=bus_73.3 Phases=1 kv=157.6864406779661 kw=498.4388075405784 kvar=163.48792887330973 vminpu=0.85
new load.load_74_A bus1=bus_74.1 Phases=1 kv=157.6864406779661 kw=997.847866522228 kvar=327.2941002192908 vminpu=0.85
new load.load_74_B bus1=bus_74.2 Phases=1 kv=157.6864406779661 kw=1051.8565701648051 kvar=345.0089550140561 vminpu=0.85
new load.load_75_A bus1=bus_75.1 Phases=1 kv=157.6864406779661 kw=673.733303115794 kvar=220.98452342198044 vminpu=0.85
new load.load_75_B bus1=bus_75.2 Phases=1 kv=157.6864406779661 kw=1506.277597053 kvar=494.059051833384 vminpu=0.85
new load.load_76_A bus1=bus_76.1 Phases=1 kv=157.6864406779661 kw=1985.7753234626148 kvar=651.3343060957377 vminpu=0.85
new load.load_76_B bus1=bus_76.2 Phases=1 kv=157.6864406779661 kw=668.9127238555293 kvar=219.40337342461362 vminpu=0.85
new load.load_77_A bus1=bus_77.1 Phases=1 kv=157.6864406779661 kw=384.9174851843953 kvar=126.25293514048165 vminpu=0.85
new load.load_77_B bus1=bus_77.2 Phases=1 kv=157.6864406779661 kw=1984.785979054724 kvar=651.0098011299496 vminpu=0.85
new load.load_78_A bus1=bus_78.1 Phases=1 kv=157.6864406779661 kw=1122.453328924063 kvar=368.1646918870927 vminpu=0.85
new load.load_78_B bus1=bus_78.2 Phases=1 kv=157.6864406779661 kw=1493.5636417157075 kvar=489.8888744827521 vminpu=0.85
new load.load_79_B bus1=bus_79.2 Phases=1 kv=157.6864406779661 kw=1838.7381488552608 kvar=603.1061128245256 vminpu=0.85
new load.load_80_A bus1=bus_80.1 Phases=1 kv=157.6864406779661 kw=942.8557851882445 kvar=309.2566975417442 vminpu=0.85
new load.load_80_C bus1=bus_80.3 Phases=1 kv=157.6864406779661 kw=1016.1388785596104 kvar=333.2935521675522 vminpu=0.85
new load.load_81_A bus1=bus_81.1 Phases=1 kv=157.6864406779661 kw=804.5589039141588 kvar=263.8953204838441 vminpu=0.85
new load.load_81_B bus1=bus_81.2 Phases=1 kv=157.6864406779661 kw=1295.5142316645613 kvar=424.9286679859761 vminpu=0.85
new load.load_82_A bus1=bus_82.1 Phases=1 kv=157.6864406779661 kw=330.41432271337504 kvar=108.37589784998701 vminpu=0.85
new load.load_82_B bus1=bus_82.2 Phases=1 kv=157.6864406779661 kw=1645.53118211987 kvar=539.7342277353174 vminpu=0.85
new load.load_83_A bus1=bus_83.1 Phases=1 kv=157.6864406779661 kw=679.5757072692659 kvar=222.9008319843192 vminpu=0.85
new load.load_83_B bus1=bus_83.2 Phases=1 kv=157.6864406779661 kw=1013.361203357322 kvar=332.3824747012016 vminpu=0.85
new load.load_84_A bus1=bus_84.1 Phases=1 kv=157.6864406779661 kw=408.83411875296434 kvar=134.09759095097232 vminpu=0.85
new load.load_84_B bus1=bus_84.2 Phases=1 kv=157.6864406779661 kw=1683.7891494020823 kvar=552.282841003883 vminpu=0.85
new load.load_85_A bus1=bus_85.1 Phases=1 kv=157.6864406779661 kw=344.18754640437703 kvar=112.89351522063568 vminpu=0.85
new load.load_85_B bus1=bus_85.2 Phases=1 kv=157.6864406779661 kw=2108.015615272964 kvar=691.4291218095323 vminpu=0.85
new load.load_86_B bus1=bus_86.2 Phases=1 kv=157.6864406779661 kw=2245.8478759871464 kvar=736.6381033237841 vminpu=0.85
new load.load_87_A bus1=bus_87.1 Phases=1 kv=157.6864406779661 kw=554.3614934549082 kvar=181.8305698532099 vminpu=0.85
new load.load_87_B bus1=bus_87.2 Phases=1 kv=157.6864406779661 kw=1812.260542425753 kvar=594.421457915647 vminpu=0.85
new load.load_88_B bus1=bus_88.2 Phases=1 kv=157.6864406779661 kw=1883.190331878509 kvar=617.686428856151 vminpu=0.85
new load.load_89_B bus1=bus_89.2 Phases=1 kv=157.6864406779661 kw=1663.2432086583667 kvar=545.5437724399443 vminpu=0.85
new load.load_90_B bus1=bus_90.2 Phases=1 kv=157.6864406779661 kw=2430.9613475274305 kvar=797.3553219889973 vminpu=0.85
new load.load_91_B bus1=bus_91.2 Phases=1 kv=157.6864406779661 kw=2260.70116988306 kvar=741.5099837216437 vminpu=0.85
new load.load_92_B bus1=bus_92.2 Phases=1 kv=157.6864406779661 kw=1977.287948284984 kvar=648.5504470374748 vminpu=0.85
new load.load_93_B bus1=bus_93.2 Phases=1 kv=157.6864406779661 kw=2797.157008154149 kvar=917.4674986745609 vminpu=0.85
new load.load_94_B bus1=bus_94.2 Phases=1 kv=157.6864406779661 kw=1694.008095142939 kvar=555.6346552068841 vminpu=0.85
new load.load_95_B bus1=bus_95.2 Phases=1 kv=157.6864406779661 kw=2103.009937451652 kvar=689.7872594841419 vminpu=0.85
new load.load_96_B bus1=bus_96.2 Phases=1 kv=157.6864406779661 kw=2093.582123983332 kvar=686.694936666533 vminpu=0.85
new load.load_97_B bus1=bus_97.2 Phases=1 kv=157.6864406779661 kw=1778.1063848971337 kvar=583.2188942462599 vminpu=0.85
new load.load_98_B bus1=bus_98.2 Phases=1 kv=157.6864406779661 kw=1871.7731258525955 kvar=613.9415852796513 vminpu=0.85
new load.load_99_B bus1=bus_99.2 Phases=1 kv=157.6864406779661 kw=1546.0241253162008 kvar=507.0959131037139 vminpu=0.85
new load.load_100_B bus1=bus_100.2 Phases=1 kv=157.6864406779661 kw=1533.618088153521 kvar=503.0267329143549 vminpu=0.85
new load.load_101_B bus1=bus_101.2 Phases=1 kv=157.6864406779661 kw=2602.5852884499886 kvar=853.6479746115963 vminpu=0.85
new load.load_102_B bus1=bus_102.2 Phases=1 kv=157.6864406779661 kw=2058.7879596071507 kvar=675.2824507511455 vminpu=0.85
new load.load_103_B bus1=bus_103.2 Phases=1 kv=157.6864406779661 kw=2058.705341120315 kvar=675.2553518874633 vminpu=0.85
new load.load_104_B bus1=bus_104.2 Phases=1 kv=157.6864406779661 kw=1965.260501860157 kvar=644.6054446101316 vminpu=0.85
new load.load_105_B bus1=bus_105.2 Phases=1 kv=157.6864406779661 kw=1675.8706900814132 kvar=549.6855863467035 vminpu=0.85
new load.load_106_B bus1=bus_106.2 Phases=1 kv=157.6864406779661 kw=1946.5308845775303 kvar=638.46213014143 vminpu=0.85
new load.load_107_B bus1=bus_107.2 Phases=1 kv=157.6864406779661 kw=2967.754045297762 kvar=973.423326857666 vminpu=0.85
new load.load_108_B bus1=bus_108.2 Phases=1 kv=157.6864406779661 kw=768.3747010621438 kvar=252.02690194838317 vminpu=0.85
new load.load_109_B bus1=bus_109.2 Phases=1 kv=157.6864406779661 kw=2258.582084473536 kvar=740.8149237073197 vminpu=0.85
new load.load_110_B bus1=bus_110.2 Phases=1 kv=157.6864406779661 kw=1997.514918296728 kvar=655.1848932013268 vminpu=0.85
new load.load_111_B bus1=bus_111.2 Phases=1 kv=157.6864406779661 kw=2624.627806712086 kvar=860.8779206015643 vminpu=0.85
new load.load_112_C bus1=bus_112.3 Phases=1 kv=157.6864406779661 kw=1777.8977595404117 kvar=583.150465129255 vminpu=0.85
new load.load_113_C bus1=bus_113.3 Phases=1 kv=157.6864406779661 kw=1994.3037467327624 kvar=654.1316289283461 vminpu=0.85
new load.load_114_C bus1=bus_114.3 Phases=1 kv=157.6864406779661 kw=2119.0541867322195 kvar=695.049773248168 vminpu=0.85
new load.load_115_B bus1=bus_115.2 Phases=1 kv=157.6864406779661 kw=2438.370860382119 kvar=799.7856422053351 vminpu=0.85
new load.load_116_B bus1=bus_116.2 Phases=1 kv=157.6864406779661 kw=1792.681131492419 kvar=587.9994111295134 vminpu=0.85
new load.load_117_A bus1=bus_117.1 Phases=1 kv=157.6864406779661 kw=113.9800727779179 kvar=37.38546387115707 vminpu=0.85
new load.load_117_B bus1=bus_117.2 Phases=1 kv=157.6864406779661 kw=1790.390130982691 kvar=587.2479629623227 vminpu=0.85

!---------------- SOLUTION ----------------

set controlmode=off
Set Voltagebases=[157.6864406779661]
calcv
Solve